/*--------------------------------*- C++ -*----------------------------------*\
  =========                 |
  \\      /  F ield         | OpenFOAM: The Open Source CFD Toolbox
   \\    /   O peration     | Website:  https://openfoam.org
    \\  /    A nd           | Version:  10
     \\/     M anipulation  |
\*---------------------------------------------------------------------------*/
FoamFile
{
    format      ascii;
    class       extendedFeatureEdgeMesh;
    location    "constant/extendedFeatureEdgeMesh";
    object      surroundings.extendedFeatureEdgeMesh;
}
// * * * * * * * * * * * * * * * * * * * * * * * * * * * * * * * * * * * * * //

// points

80
(
(-0.66000003 -0.54000002 -0.00016)
(-0.66000003 -0.38 -0.00016)
(-0.41999999 -0.54000002 -0.00016)
(-0.41999999 -0.38 -0.00016)
(-0.66000003 -0.54000002 0.18000001)
(-0.66000003 -0.38 0.18000001)
(-0.41999999 -0.54000002 0.18000001)
(-0.41999999 -0.38 0.18000001)
(-0.66000003 -0.079999998 -0.00016)
(-0.66000003 0.079999998 -0.00016)
(-0.41999999 -0.079999998 -0.00016)
(-0.41999999 0.079999998 -0.00016)
(-0.66000003 -0.079999998 0.18000001)
(-0.66000003 0.079999998 0.18000001)
(-0.41999999 -0.079999998 0.18000001)
(-0.41999999 0.079999998 0.18000001)
(-0.66000003 0.38 -0.00016)
(-0.66000003 0.54000002 -0.00016)
(-0.41999999 0.38 -0.00016)
(-0.41999999 0.54000002 -0.00016)
(-0.66000003 0.38 0.18000001)
(-0.66000003 0.54000002 0.18000001)
(-0.41999999 0.38 0.18000001)
(-0.41999999 0.54000002 0.18000001)
(-0.12 -1 -0.00016)
(-0.12 -0.83999997 -0.00016)
(0.12 -1 -0.00016)
(0.12 -0.83999997 -0.00016)
(-0.12 -1 0.18000001)
(-0.12 -0.83999997 0.18000001)
(0.12 -1 0.18000001)
(0.12 -0.83999997 0.18000001)
(-0.12 -0.54000002 -0.00016)
(-0.12 -0.38 -0.00016)
(0.12 -0.54000002 -0.00016)
(0.12 -0.38 -0.00016)
(-0.12 -0.54000002 0.18000001)
(-0.12 -0.38 0.18000001)
(0.12 -0.54000002 0.18000001)
(0.12 -0.38 0.18000001)
(-0.12 0.38 -0.00016)
(-0.12 0.54000002 -0.00016)
(0.12 0.38 -0.00016)
(0.12 0.54000002 -0.00016)
(-0.12 0.38 0.18000001)
(-0.12 0.54000002 0.18000001)
(0.12 0.38 0.18000001)
(0.12 0.54000002 0.18000001)
(-0.12 0.83999997 -0.00016)
(-0.12 1 -0.00016)
(0.12 0.83999997 -0.00016)
(0.12 1 -0.00016)
(-0.12 0.83999997 0.18000001)
(-0.12 1 0.18000001)
(0.12 0.83999997 0.18000001)
(0.12 1 0.18000001)
(0.41999999 -0.54000002 -0.00016)
(0.41999999 -0.38 -0.00016)
(0.66000003 -0.54000002 -0.00016)
(0.66000003 -0.38 -0.00016)
(0.41999999 -0.54000002 0.18000001)
(0.41999999 -0.38 0.18000001)
(0.66000003 -0.54000002 0.18000001)
(0.66000003 -0.38 0.18000001)
(0.41999999 -0.079999998 -0.00016)
(0.41999999 0.079999998 -0.00016)
(0.66000003 -0.079999998 -0.00016)
(0.66000003 0.079999998 -0.00016)
(0.41999999 -0.079999998 0.18000001)
(0.41999999 0.079999998 0.18000001)
(0.66000003 -0.079999998 0.18000001)
(0.66000003 0.079999998 0.18000001)
(0.41999999 0.38 -0.00016)
(0.41999999 0.54000002 -0.00016)
(0.66000003 0.38 -0.00016)
(0.66000003 0.54000002 -0.00016)
(0.41999999 0.38 0.18000001)
(0.41999999 0.54000002 0.18000001)
(0.66000003 0.38 0.18000001)
(0.66000003 0.54000002 0.18000001)
)

// edges

120
(
(0 1)
(2 0)
(3 2)
(1 3)
(4 5)
(0 4)
(5 1)
(6 7)
(4 6)
(7 5)
(6 2)
(3 7)
(8 9)
(10 8)
(11 10)
(9 11)
(12 13)
(8 12)
(13 9)
(14 15)
(12 14)
(15 13)
(14 10)
(11 15)
(16 17)
(18 16)
(19 18)
(17 19)
(20 21)
(16 20)
(21 17)
(22 23)
(20 22)
(23 21)
(22 18)
(19 23)
(24 25)
(26 24)
(27 26)
(25 27)
(28 29)
(24 28)
(29 25)
(30 31)
(28 30)
(31 29)
(30 26)
(27 31)
(32 33)
(34 32)
(35 34)
(33 35)
(36 37)
(32 36)
(37 33)
(38 39)
(36 38)
(39 37)
(38 34)
(35 39)
(40 41)
(42 40)
(43 42)
(41 43)
(44 45)
(40 44)
(45 41)
(46 47)
(44 46)
(47 45)
(46 42)
(43 47)
(48 49)
(50 48)
(51 50)
(49 51)
(52 53)
(48 52)
(53 49)
(54 55)
(52 54)
(55 53)
(54 50)
(51 55)
(56 57)
(58 56)
(59 58)
(57 59)
(60 61)
(56 60)
(61 57)
(62 63)
(60 62)
(63 61)
(62 58)
(59 63)
(64 65)
(66 64)
(67 66)
(65 67)
(68 69)
(64 68)
(69 65)
(70 71)
(68 70)
(71 69)
(70 66)
(67 71)
(72 73)
(74 72)
(75 74)
(73 75)
(76 77)
(72 76)
(77 73)
(78 79)
(76 78)
(79 77)
(78 74)
(75 79)
)

// concaveStart mixedStart nonFeatureStart
80 80 80
// internalStart flatStart openStart multipleStart
120 120 120 120
// normals

120
(
(0 0 -1)
(-1 0 0)
(0 -1 0)
(0 0 -1)
(1 0 0)
(0 1 -0)
(-1 0 0)
(0 0 1)
(0 -1 0)
(0 1 0)
(0 0 1)
(1 -0 0)
(0 0 -1)
(-1 0 0)
(0 -1 0)
(0 0 -1)
(1 0 0)
(0 1 -0)
(-1 0 0)
(0 0 1)
(0 -1 0)
(0 1 0)
(0 0 1)
(1 -0 0)
(0 0 -1)
(-1 0 0)
(0 -1 0)
(0 0 -1)
(1 0 0)
(0 1 -0)
(-1 0 0)
(0 0 1)
(0 -1 0)
(0 1 0)
(0 0 1)
(1 -0 0)
(0 0 -1)
(-1 0 0)
(0 -1 0)
(0 0 -1)
(1 0 0)
(0 1 -0)
(-1 0 0)
(0 0 1)
(0 -1 0)
(0 1 0)
(0 0 1)
(1 -0 0)
(0 0 -1)
(-1 0 0)
(0 -1 0)
(0 0 -1)
(1 0 0)
(0 1 -0)
(-1 0 0)
(0 0 1)
(0 -1 0)
(0 1 0)
(0 0 1)
(1 -0 0)
(0 0 -1)
(-1 0 0)
(0 -1 0)
(0 0 -1)
(1 0 0)
(0 1 -0)
(-1 0 0)
(0 0 1)
(0 -1 0)
(0 1 0)
(0 0 1)
(1 -0 0)
(0 0 -1)
(-1 0 0)
(0 -1 0)
(0 0 -1)
(1 0 0)
(0 1 -0)
(-1 0 0)
(0 0 1)
(0 -1 0)
(0 1 0)
(0 0 1)
(1 -0 0)
(0 0 -1)
(-1 0 0)
(0 -1 0)
(0 0 -1)
(1 0 0)
(0 1 -0)
(-1 0 0)
(0 0 1)
(0 -1 0)
(0 1 0)
(0 0 1)
(1 -0 0)
(0 0 -1)
(-1 0 0)
(0 -1 0)
(0 0 -1)
(1 0 0)
(0 1 -0)
(-1 0 0)
(0 0 1)
(0 -1 0)
(0 1 0)
(0 0 1)
(1 -0 0)
(0 0 -1)
(-1 0 0)
(0 -1 0)
(0 0 -1)
(1 0 0)
(0 1 -0)
(-1 0 0)
(0 0 1)
(0 -1 0)
(0 1 0)
(0 0 1)
(1 -0 0)
)

// normal volume types

120
(
0
0
0
0
0
0
0
0
0
0
0
0
0
0
0
0
0
0
0
0
0
0
0
0
0
0
0
0
0
0
0
0
0
0
0
0
0
0
0
0
0
0
0
0
0
0
0
0
0
0
0
0
0
0
0
0
0
0
0
0
0
0
0
0
0
0
0
0
0
0
0
0
0
0
0
0
0
0
0
0
0
0
0
0
0
0
0
0
0
0
0
0
0
0
0
0
0
0
0
0
0
0
0
0
0
0
0
0
0
0
0
0
0
0
0
0
0
0
0
0
)

// normalDirections

120
(
2(1 -1)
2(1 -1)
2(1 -1)
2(1 -1)
2(1 -1)
2(1 -1)
2(1 -1)
2(1 -1)
2(1 -1)
2(1 -1)
2(1 -1)
2(1 -1)
2(1 -1)
2(1 -1)
2(1 -1)
2(1 -1)
2(1 -1)
2(1 -1)
2(1 -1)
2(1 -1)
2(1 -1)
2(1 -1)
2(1 -1)
2(1 -1)
2(1 -1)
2(1 -1)
2(1 -1)
2(1 -1)
2(1 -1)
2(1 -1)
2(1 -1)
2(1 -1)
2(1 -1)
2(1 -1)
2(1 -1)
2(1 -1)
2(1 -1)
2(1 -1)
2(1 -1)
2(1 -1)
2(1 -1)
2(1 -1)
2(1 -1)
2(1 -1)
2(1 -1)
2(1 -1)
2(1 -1)
2(1 -1)
2(1 -1)
2(1 -1)
2(1 -1)
2(1 -1)
2(1 -1)
2(1 -1)
2(1 -1)
2(1 -1)
2(1 -1)
2(1 -1)
2(1 -1)
2(1 -1)
2(1 -1)
2(1 -1)
2(1 -1)
2(1 -1)
2(1 -1)
2(1 -1)
2(1 -1)
2(1 -1)
2(1 -1)
2(1 -1)
2(1 -1)
2(1 -1)
2(1 -1)
2(1 -1)
2(1 -1)
2(1 -1)
2(1 -1)
2(1 -1)
2(1 -1)
2(1 -1)
2(1 -1)
2(1 -1)
2(1 -1)
2(1 -1)
2(1 -1)
2(1 -1)
2(1 -1)
2(1 -1)
2(1 -1)
2(1 -1)
2(1 -1)
2(1 -1)
2(1 -1)
2(1 -1)
2(1 -1)
2(1 -1)
2(1 -1)
2(1 -1)
2(1 -1)
2(1 -1)
2(1 -1)
2(1 -1)
2(1 -1)
2(1 -1)
2(1 -1)
2(1 -1)
2(1 -1)
2(1 -1)
2(1 -1)
2(1 -1)
2(1 -1)
2(1 -1)
2(1 -1)
2(1 -1)
2(1 -1)
2(1 -1)
2(1 -1)
2(1 -1)
2(1 -1)
2(1 -1)
)

// edgeNormals

120
(
2(0 1)
2(0 2)
2(3 4)
2(3 5)
2(6 7)
2(6 8)
2(1 9)
2(10 11)
2(10 8)
2(7 9)
2(4 2)
2(11 5)
2(12 13)
2(12 14)
2(15 16)
2(15 17)
2(18 19)
2(18 20)
2(13 21)
2(22 23)
2(22 20)
2(19 21)
2(16 14)
2(23 17)
2(24 25)
2(24 26)
2(27 28)
2(27 29)
2(30 31)
2(30 32)
2(25 33)
2(34 35)
2(34 32)
2(31 33)
2(28 26)
2(35 29)
2(36 37)
2(36 38)
2(39 40)
2(39 41)
2(42 43)
2(42 44)
2(37 45)
2(46 47)
2(46 44)
2(43 45)
2(40 38)
2(47 41)
2(48 49)
2(48 50)
2(51 52)
2(51 53)
2(54 55)
2(54 56)
2(49 57)
2(58 59)
2(58 56)
2(55 57)
2(52 50)
2(59 53)
2(60 61)
2(60 62)
2(63 64)
2(63 65)
2(66 67)
2(66 68)
2(61 69)
2(70 71)
2(70 68)
2(67 69)
2(64 62)
2(71 65)
2(72 73)
2(72 74)
2(75 76)
2(75 77)
2(78 79)
2(78 80)
2(73 81)
2(82 83)
2(82 80)
2(79 81)
2(76 74)
2(83 77)
2(84 85)
2(84 86)
2(87 88)
2(87 89)
2(90 91)
2(90 92)
2(85 93)
2(94 95)
2(94 92)
2(91 93)
2(88 86)
2(95 89)
2(96 97)
2(96 98)
2(99 100)
2(99 101)
2(102 103)
2(102 104)
2(97 105)
2(106 107)
2(106 104)
2(103 105)
2(100 98)
2(107 101)
2(108 109)
2(108 110)
2(111 112)
2(111 113)
2(114 115)
2(114 116)
2(109 117)
2(118 119)
2(118 116)
2(115 117)
2(112 110)
2(119 113)
)

// featurePointNormals

80
(
3(0 1 2)
3(0 1 5)
3(0 2 4)
3(3 4 5)
3(6 7 8)
3(6 7 9)
3(10 11 8)
3(10 11 9)
3(12 13 14)
3(12 13 17)
3(12 14 16)
3(15 16 17)
3(18 19 20)
3(18 19 21)
3(22 23 20)
3(22 23 21)
3(24 25 26)
3(24 25 29)
3(24 26 28)
3(27 28 29)
3(30 31 32)
3(30 31 33)
3(34 35 32)
3(34 35 33)
3(36 37 38)
3(36 37 41)
3(36 38 40)
3(39 40 41)
3(42 43 44)
3(42 43 45)
3(46 47 44)
3(46 47 45)
3(48 49 50)
3(48 49 53)
3(48 50 52)
3(51 52 53)
3(54 55 56)
3(54 55 57)
3(58 59 56)
3(58 59 57)
3(60 61 62)
3(60 61 65)
3(60 62 64)
3(63 64 65)
3(66 67 68)
3(66 67 69)
3(70 71 68)
3(70 71 69)
3(72 73 74)
3(72 73 77)
3(72 74 76)
3(75 76 77)
3(78 79 80)
3(78 79 81)
3(82 83 80)
3(82 83 81)
3(84 85 86)
3(84 85 89)
3(84 86 88)
3(87 88 89)
3(90 91 92)
3(90 91 93)
3(94 95 92)
3(94 95 93)
3(96 97 98)
3(96 97 101)
3(96 98 100)
3(99 100 101)
3(102 103 104)
3(102 103 105)
3(106 107 104)
3(106 107 105)
3(108 109 110)
3(108 109 113)
3(108 110 112)
3(111 112 113)
3(114 115 116)
3(114 115 117)
3(118 119 116)
3(118 119 117)
)

// featurePointEdges

80
(
3(0 5 1)
3(3 6 0)
3(2 10 1)
3(2 11 3)
3(4 8 5)
3(6 9 4)
3(7 10 8)
3(9 11 7)
3(12 17 13)
3(15 18 12)
3(14 22 13)
3(14 23 15)
3(16 20 17)
3(18 21 16)
3(19 22 20)
3(21 23 19)
3(24 29 25)
3(27 30 24)
3(26 34 25)
3(26 35 27)
3(28 32 29)
3(30 33 28)
3(31 34 32)
3(33 35 31)
3(36 41 37)
3(39 42 36)
3(38 46 37)
3(38 47 39)
3(40 44 41)
3(42 45 40)
3(43 46 44)
3(45 47 43)
3(48 53 49)
3(51 54 48)
3(50 58 49)
3(50 59 51)
3(52 56 53)
3(54 57 52)
3(55 58 56)
3(57 59 55)
3(60 65 61)
3(63 66 60)
3(62 70 61)
3(62 71 63)
3(64 68 65)
3(66 69 64)
3(67 70 68)
3(69 71 67)
3(72 77 73)
3(75 78 72)
3(74 82 73)
3(74 83 75)
3(76 80 77)
3(78 81 76)
3(79 82 80)
3(81 83 79)
3(84 89 85)
3(87 90 84)
3(86 94 85)
3(86 95 87)
3(88 92 89)
3(90 93 88)
3(91 94 92)
3(93 95 91)
3(96 101 97)
3(99 102 96)
3(98 106 97)
3(98 107 99)
3(100 104 101)
3(102 105 100)
3(103 106 104)
3(105 107 103)
3(108 113 109)
3(111 114 108)
3(110 118 109)
3(110 119 111)
3(112 116 113)
3(114 117 112)
3(115 118 116)
3(117 119 115)
)

// regionEdges
0()


// ************************************************************************* //
