/*--------------------------------*- C++ -*----------------------------------*\
  =========                 |
  \\      /  F ield         | OpenFOAM: The Open Source CFD Toolbox
   \\    /   O peration     | Website:  https://openfoam.org
    \\  /    A nd           | Version:  10
     \\/     M anipulation  |
\*---------------------------------------------------------------------------*/
FoamFile
{
    version     2.0;
    format      ascii;    
    location    "0";
    class       volScalarField;
    object      nut;
}
// * * * * * * * * * * * * * * * * * * * * * * * * * * * * * * * * * * * * * //

dimensions      [0 2 -1 0 0 0 0 ];

internalField   uniform 0.0000;

boundaryField
{
    inlet
    {
	 type 	 zeroGradient;
    }

    outlet
    {
	 type 	 uniformFixedValue;
	 uniformValue 	 constant 0.0000;
    }

    ground 
    {
	 type 	 nutkAtmRoughWallFunction;
	 z0  	  uniform 3.0000e-03;
	 value 	 uniform 0.0;
    }
    
    top    
    {
	 type 	 symmetry;
    }

    front    
    {
	 type 	 symmetry;
    }
    
    back    
    {
	 type 	 symmetry;
    }
    
    building 
    {
	 type 	 nutUSpaldingWallFunction;
	 value 	 uniform 0;
    }
}

// ************************************************************************* //
