/*--------------------------------*- C++ -*----------------------------------*\
  =========                 |
  \\      /  F ield         | OpenFOAM: The Open Source CFD Toolbox
   \\    /   O peration     | Website:  https://openfoam.org
    \\  /    A nd           | Version:  10
     \\/     M anipulation  |
\*---------------------------------------------------------------------------*/
FoamFile
{
    format      ascii;
    class       featureEdgeMesh;
    location    "constant/geometry";
    object      surroundings.eMesh;
}
// * * * * * * * * * * * * * * * * * * * * * * * * * * * * * * * * * * * * * //


// points:

80
(
(-0.66000003 -0.54000002 -0.00016)
(-0.66000003 -0.38 -0.00016)
(-0.41999999 -0.54000002 -0.00016)
(-0.41999999 -0.38 -0.00016)
(-0.66000003 -0.54000002 0.18000001)
(-0.66000003 -0.38 0.18000001)
(-0.41999999 -0.54000002 0.18000001)
(-0.41999999 -0.38 0.18000001)
(-0.66000003 -0.079999998 -0.00016)
(-0.66000003 0.079999998 -0.00016)
(-0.41999999 -0.079999998 -0.00016)
(-0.41999999 0.079999998 -0.00016)
(-0.66000003 -0.079999998 0.18000001)
(-0.66000003 0.079999998 0.18000001)
(-0.41999999 -0.079999998 0.18000001)
(-0.41999999 0.079999998 0.18000001)
(-0.66000003 0.38 -0.00016)
(-0.66000003 0.54000002 -0.00016)
(-0.41999999 0.38 -0.00016)
(-0.41999999 0.54000002 -0.00016)
(-0.66000003 0.38 0.18000001)
(-0.66000003 0.54000002 0.18000001)
(-0.41999999 0.38 0.18000001)
(-0.41999999 0.54000002 0.18000001)
(-0.12 -1 -0.00016)
(-0.12 -0.83999997 -0.00016)
(0.12 -1 -0.00016)
(0.12 -0.83999997 -0.00016)
(-0.12 -1 0.18000001)
(-0.12 -0.83999997 0.18000001)
(0.12 -1 0.18000001)
(0.12 -0.83999997 0.18000001)
(-0.12 -0.54000002 -0.00016)
(-0.12 -0.38 -0.00016)
(0.12 -0.54000002 -0.00016)
(0.12 -0.38 -0.00016)
(-0.12 -0.54000002 0.18000001)
(-0.12 -0.38 0.18000001)
(0.12 -0.54000002 0.18000001)
(0.12 -0.38 0.18000001)
(-0.12 0.38 -0.00016)
(-0.12 0.54000002 -0.00016)
(0.12 0.38 -0.00016)
(0.12 0.54000002 -0.00016)
(-0.12 0.38 0.18000001)
(-0.12 0.54000002 0.18000001)
(0.12 0.38 0.18000001)
(0.12 0.54000002 0.18000001)
(-0.12 0.83999997 -0.00016)
(-0.12 1 -0.00016)
(0.12 0.83999997 -0.00016)
(0.12 1 -0.00016)
(-0.12 0.83999997 0.18000001)
(-0.12 1 0.18000001)
(0.12 0.83999997 0.18000001)
(0.12 1 0.18000001)
(0.41999999 -0.54000002 -0.00016)
(0.41999999 -0.38 -0.00016)
(0.66000003 -0.54000002 -0.00016)
(0.66000003 -0.38 -0.00016)
(0.41999999 -0.54000002 0.18000001)
(0.41999999 -0.38 0.18000001)
(0.66000003 -0.54000002 0.18000001)
(0.66000003 -0.38 0.18000001)
(0.41999999 -0.079999998 -0.00016)
(0.41999999 0.079999998 -0.00016)
(0.66000003 -0.079999998 -0.00016)
(0.66000003 0.079999998 -0.00016)
(0.41999999 -0.079999998 0.18000001)
(0.41999999 0.079999998 0.18000001)
(0.66000003 -0.079999998 0.18000001)
(0.66000003 0.079999998 0.18000001)
(0.41999999 0.38 -0.00016)
(0.41999999 0.54000002 -0.00016)
(0.66000003 0.38 -0.00016)
(0.66000003 0.54000002 -0.00016)
(0.41999999 0.38 0.18000001)
(0.41999999 0.54000002 0.18000001)
(0.66000003 0.38 0.18000001)
(0.66000003 0.54000002 0.18000001)
)


// edges:

120
(
(0 1)
(2 0)
(3 2)
(1 3)
(4 5)
(0 4)
(5 1)
(6 7)
(4 6)
(7 5)
(6 2)
(3 7)
(8 9)
(10 8)
(11 10)
(9 11)
(12 13)
(8 12)
(13 9)
(14 15)
(12 14)
(15 13)
(14 10)
(11 15)
(16 17)
(18 16)
(19 18)
(17 19)
(20 21)
(16 20)
(21 17)
(22 23)
(20 22)
(23 21)
(22 18)
(19 23)
(24 25)
(26 24)
(27 26)
(25 27)
(28 29)
(24 28)
(29 25)
(30 31)
(28 30)
(31 29)
(30 26)
(27 31)
(32 33)
(34 32)
(35 34)
(33 35)
(36 37)
(32 36)
(37 33)
(38 39)
(36 38)
(39 37)
(38 34)
(35 39)
(40 41)
(42 40)
(43 42)
(41 43)
(44 45)
(40 44)
(45 41)
(46 47)
(44 46)
(47 45)
(46 42)
(43 47)
(48 49)
(50 48)
(51 50)
(49 51)
(52 53)
(48 52)
(53 49)
(54 55)
(52 54)
(55 53)
(54 50)
(51 55)
(56 57)
(58 56)
(59 58)
(57 59)
(60 61)
(56 60)
(61 57)
(62 63)
(60 62)
(63 61)
(62 58)
(59 63)
(64 65)
(66 64)
(67 66)
(65 67)
(68 69)
(64 68)
(69 65)
(70 71)
(68 70)
(71 69)
(70 66)
(67 71)
(72 73)
(74 72)
(75 74)
(73 75)
(76 77)
(72 76)
(77 73)
(78 79)
(76 78)
(79 77)
(78 74)
(75 79)
)

// * * * * * * * * * * * * * * * * * * * * * * * * * * * * * * * * * * * * * //


// ************************************************************************* //
